!-Generator IDFEditor 1.51
!-Option SortedOrder UseSpecialFormat

!-NOTE: All comments with '!-' are ignored by the IDFEditor and are generated automatically.
!-      Use '!' comments if they need to be retained when using the IDFEditor.


!-   ===========  ALL OBJECTS IN CLASS: VERSION ===========

! DOE Commercial Reference Building
! Large office, post-1980 construction
! Version 1.3_5.0
! EnergyPlus Version 5.0
! ASHRAE Standards 90.1-1989 and 62-1999
!
! Description:  12 story plus basement, office building.
! Form:         Area = 46,320 m2 (498,588 ft2); Number of Stories = 12; Shape = rectangle, Aspect ratio = 1.5
! Envelope:     Envelope thermal properties vary with climate according to ASHRAE Standard 90.1-1989.
!               Opaque constructions: mass walls; built-up flat roof (insulation above deck); slab-on-grade floor
!               Windows: window-to-wall ratio = 38.0%, equal distribution of windows
!               Infiltration in perimeter zones only
!                            = 1.5 cfm/ft2 above grade wall area at 0.3 in wc (75 Pa) adjusted to 0.016 in wc (4 Pa).
!                              25% of full value when ventilation system on.
! HVAC:         2 water-cooled chillers, VAV with reheat and plenum zones
!               Economizer per 90.1-2004
!
! Int. gains:   lights = 16.14 W/m2 (1.5 W/ft2) (building area method);
!               elec. plug loads = 10.76 W/m2 (1.0 W/ft2)
!               gas plug load = 0 W/m2 (0 W/ft2)
!               people = 2,397 total, 5.38/100 m2 (5.0/1000 ft2); basement 2.69/100 m2 (2.5/1000 ft2)
!               elevators = 12 @ 25 HP each, 91% motor efficiency, motor heat exhausted directly
!
! Detached Shading:               None
! Daylight:                       None
! Natural Ventilation:            None
! Zonal Equipment:                None
! Air Primary Loops:              VAV WITH REHEAT
! Plant Loops:                    SHWSys1, HeatSys1, CoolSys1, TowerWaterSys
! System Equipment Autosize:      Yes
! Purchased Cooling:              None
! Purchased Heating:              None
! Coils:                          Coil:Cooling:Water; Coil:Heating:Water
! Pumps:                          Yes
! Boilers:                        Boiler:HotWater (gas-fired)
! Chillers:                       Chiller:Electric:ReformulatedEIR (water-cooled)
!***** NOTICE *****
!***** The Reference Buildings were prepared as an account of work sponsored by an *****
!***** agency of the United States government. Neither the United States *****
!***** government nor any agency thereof, nor any of their employees, makes *****
!***** any warranty, express or implied, or assumes any legal liability or *****
!***** responsibility for the accuracy, completeness, or usefulness of any *****
!***** information, apparatus, product, or process disclosed, or represents *****
!***** that its use would not infringe privately owned rights. Reference *****
!***** herein to any specific commercial product, process, or service by *****
!***** trade name, trademark, manufacturer, or otherwise does not necessarily *****
!***** constitute or imply its endorsement, recommendation, or favoring by *****
!***** the United States government or any agency thereof. The views and *****
!***** opinions of authors expressed herein do not necessarily state or *****
!***** reflect those of the United States government or any agency thereof. *****
!***** Access to and use of the Reference Buildings imposes the following obligations *****
!***** on the user. The user agrees to credit DOE, NREL, PNNL, and LBNL in *****
!***** any publication(s) that that result from the use of Reference Buildings. *****
!***** However, the names of DOE/NREL/PNNL/LBNL may not be used in any *****
!***** advertising or publicity that implies endorsement or promotion of any *****
!***** products, services or commercial entities. *****
! Reference citation for the Commercial Reference Buildings:
! Deru, M.; Field, K.; Studer, D.; Benne, K.; Griffith, B.; Torcellini, P;
! Halverson, M.; Winiarski, D.; Liu, B.; Rosenberg, M.; Huang, J.;
! Yazdanian, M.; Crawley, D. (2010).
! U.S. Department of Energy Commercial Reference Building Models of the National Building Stock.
! Washington, DC: U.S. Department of Energy, Energy Efficiency and
! Renewable Energy, Office of Building Technologies.
! ***GENERAL SIMULATION PARAMETERS***
! Number of Zones: 19
Version,9.6;

!-   ===========  ALL OBJECTS IN CLASS: SIMULATIONCONTROL ===========


SimulationControl,
    No,                      !- Do Zone Sizing Calculation
    No,                      !- Do System Sizing Calculation
    No,                      !- Do Plant Sizing Calculation
    No,                      !- Run Simulation for Sizing Periods
    Yes,                     !- Run Simulation for Weather File Run Periods
    No,                      !- Do HVAC Sizing Simulation for Sizing Periods
    1;                       !- Maximum Number of HVAC Sizing Simulation Passes


!-   ===========  ALL OBJECTS IN CLASS: BUILDING ===========

Building,
    Ref Bldg Large Office Post1980_v1.3_5.0,  !- Name
    0.0000,                  !- North Axis {deg}
    City,                    !- Terrain
    0.0400,                  !- Loads Convergence Tolerance Value {W}
    0.2000,                  !- Temperature Convergence Tolerance Value {deltaC}
    FullInteriorAndExterior, !- Solar Distribution
    25,                      !- Maximum Number of Warmup Days
    6;                       !- Minimum Number of Warmup Days


!-   ===========  ALL OBJECTS IN CLASS: SHADOWCALCULATION ===========

ShadowCalculation,
    PolygonClipping,         !- Shading Calculation Method
    Periodic,                !- Shading Calculation Update Frequency Method
    7,                       !- Shading Calculation Update Frequency
    15000;                   !- Maximum Figures in Shadow Overlap Calculations


!-   ===========  ALL OBJECTS IN CLASS: SURFACECONVECTIONALGORITHM:INSIDE ===========

! ***MISC SIMULATION PARAMETERS***
SurfaceConvectionAlgorithm:Inside,TARP;

!-   ===========  ALL OBJECTS IN CLASS: SURFACECONVECTIONALGORITHM:OUTSIDE ===========

SurfaceConvectionAlgorithm:Outside,DOE-2;

!-   ===========  ALL OBJECTS IN CLASS: HEATBALANCEALGORITHM ===========

HeatBalanceAlgorithm,ConductionTransferFunction,200.0000;

!-   ===========  ALL OBJECTS IN CLASS: ZONEAIRHEATBALANCEALGORITHM ===========

ZoneAirHeatBalanceAlgorithm,AnalyticalSolution;

!-   ===========  ALL OBJECTS IN CLASS: TIMESTEP ===========

Timestep,60;

!-   ===========  ALL OBJECTS IN CLASS: CONVERGENCELIMITS ===========


ConvergenceLimits,
    2,                       !- Minimum System Timestep {minutes}
    25;                      !- Maximum HVAC Iterations


!-   ===========  ALL OBJECTS IN CLASS: SITE:LOCATION ===========

! WeatherFileName=USA_IL_Chicago-OHare_TMY2.epw
Site:Location,
    USA IL-CHICAGO-OHARE,    !- Name
    41.77,                   !- Latitude {deg}
    -87.75,                  !- Longitude {deg}
    -6.00,                   !- Time Zone {hr}
    190;                     !- Elevation {m}


!-   ===========  ALL OBJECTS IN CLASS: SIZINGPERIOD:DESIGNDAY ===========

! CHICAGO_IL_USA Annual Heating 99.6%, MaxDB=-20.6°C
SizingPeriod:DesignDay,
    CHICAGO Ann Htg 99.6% Condns DB,  !- Name
    1,                       !- Month
    21,                      !- Day of Month
    WinterDesignDay,         !- Day Type
    -20.6,                   !- Maximum Dry-Bulb Temperature {C}
    0.0,                     !- Daily Dry-Bulb Temperature Range {deltaC}
    ,                        !- Dry-Bulb Temperature Range Modifier Type
    ,                        !- Dry-Bulb Temperature Range Modifier Day Schedule Name
    Wetbulb,                 !- Humidity Condition Type
    -20.6,                   !- Wetbulb or DewPoint at Maximum Dry-Bulb {C}
    ,                        !- Humidity Condition Day Schedule Name
    ,                        !- Humidity Ratio at Maximum Dry-Bulb {kgWater/kgDryAir}
    ,                        !- Enthalpy at Maximum Dry-Bulb {J/kg}
    ,                        !- Daily Wet-Bulb Temperature Range {deltaC}
    99063.,                  !- Barometric Pressure {Pa}
    4.9,                     !- Wind Speed {m/s}
    270,                     !- Wind Direction {deg}
    No,                      !- Rain Indicator
    No,                      !- Snow Indicator
    No,                      !- Daylight Saving Time Indicator
    ASHRAEClearSky,          !- Solar Model Indicator
    ,                        !- Beam Solar Day Schedule Name
    ,                        !- Diffuse Solar Day Schedule Name
    ,                        !- ASHRAE Clear Sky Optical Depth for Beam Irradiance (taub) {dimensionless}
    ,                        !- ASHRAE Clear Sky Optical Depth for Diffuse Irradiance (taud) {dimensionless}
    0.00;                    !- Sky Clearness

! CHICAGO_IL_USA Annual Cooling (WB=>MDB) .4%, MDB=31.2°C WB=25.5°C
SizingPeriod:DesignDay,
    CHICAGO Ann Clg .4% Condns WB=>MDB,  !- Name
    7,                       !- Month
    21,                      !- Day of Month
    SummerDesignDay,         !- Day Type
    31.2,                    !- Maximum Dry-Bulb Temperature {C}
    10.7,                    !- Daily Dry-Bulb Temperature Range {deltaC}
    ,                        !- Dry-Bulb Temperature Range Modifier Type
    ,                        !- Dry-Bulb Temperature Range Modifier Day Schedule Name
    Wetbulb,                 !- Humidity Condition Type
    25.5,                    !- Wetbulb or DewPoint at Maximum Dry-Bulb {C}
    ,                        !- Humidity Condition Day Schedule Name
    ,                        !- Humidity Ratio at Maximum Dry-Bulb {kgWater/kgDryAir}
    ,                        !- Enthalpy at Maximum Dry-Bulb {J/kg}
    ,                        !- Daily Wet-Bulb Temperature Range {deltaC}
    99063.,                  !- Barometric Pressure {Pa}
    5.3,                     !- Wind Speed {m/s}
    230,                     !- Wind Direction {deg}
    No,                      !- Rain Indicator
    No,                      !- Snow Indicator
    No,                      !- Daylight Saving Time Indicator
    ASHRAEClearSky,          !- Solar Model Indicator
    ,                        !- Beam Solar Day Schedule Name
    ,                        !- Diffuse Solar Day Schedule Name
    ,                        !- ASHRAE Clear Sky Optical Depth for Beam Irradiance (taub) {dimensionless}
    ,                        !- ASHRAE Clear Sky Optical Depth for Diffuse Irradiance (taud) {dimensionless}
    1.00;                    !- Sky Clearness


!-   ===========  ALL OBJECTS IN CLASS: RUNPERIOD ===========

RunPeriod,
    RUNPERIOD 1,             !- Name
    1,                       !- Begin Month
    1,                       !- Begin Day of Month
    ,                        !- Begin Year
    12,                      !- End Month
    31,                      !- End Day of Month
    ,                        !- End Year
    Sunday,                  !- Day of Week for Start Day
    No,                      !- Use Weather File Holidays and Special Days
    No,                      !- Use Weather File Daylight Saving Period
    No,                      !- Apply Weekend Holiday Rule
    Yes,                     !- Use Weather File Rain Indicators
    Yes;                     !- Use Weather File Snow Indicators


!-   ===========  ALL OBJECTS IN CLASS: RUNPERIODCONTROL:SPECIALDAYS ===========

RunPeriodControl:SpecialDays,
    New Years Day,           !- Name
    January 1,               !- Start Date
    1,                       !- Duration {days}
    Holiday;                 !- Special Day Type

RunPeriodControl:SpecialDays,
    Veterans Day,            !- Name
    November 11,             !- Start Date
    1,                       !- Duration {days}
    Holiday;                 !- Special Day Type

RunPeriodControl:SpecialDays,
    Christmas,               !- Name
    December 25,             !- Start Date
    1,                       !- Duration {days}
    Holiday;                 !- Special Day Type

RunPeriodControl:SpecialDays,
    Independence Day,        !- Name
    July 4,                  !- Start Date
    1,                       !- Duration {days}
    Holiday;                 !- Special Day Type

RunPeriodControl:SpecialDays,
    MLK Day,                 !- Name
    3rd Monday in January,   !- Start Date
    1,                       !- Duration {days}
    Holiday;                 !- Special Day Type

RunPeriodControl:SpecialDays,
    Presidents Day,          !- Name
    3rd Monday in February,  !- Start Date
    1,                       !- Duration {days}
    Holiday;                 !- Special Day Type

RunPeriodControl:SpecialDays,
    Memorial Day,            !- Name
    Last Monday in May,      !- Start Date
    1,                       !- Duration {days}
    Holiday;                 !- Special Day Type

RunPeriodControl:SpecialDays,
    Labor Day,               !- Name
    1st Monday in September, !- Start Date
    1,                       !- Duration {days}
    Holiday;                 !- Special Day Type

RunPeriodControl:SpecialDays,
    Columbus Day,            !- Name
    2nd Monday in October,   !- Start Date
    1,                       !- Duration {days}
    Holiday;                 !- Special Day Type

RunPeriodControl:SpecialDays,
    Thanksgiving,            !- Name
    4th Thursday in November,!- Start Date
    1,                       !- Duration {days}
    Holiday;                 !- Special Day Type


!-   ===========  ALL OBJECTS IN CLASS: RUNPERIODCONTROL:DAYLIGHTSAVINGTIME ===========

! ***HOLIDAYS & DAYLIGHT SAVINGS***
RunPeriodControl:DaylightSavingTime,
    2nd Sunday in March,     !- Start Date
    1st Sunday in November;  !- End Date


!-   ===========  ALL OBJECTS IN CLASS: SITE:GROUNDTEMPERATURE:BUILDINGSURFACE ===========

Site:GroundTemperature:BuildingSurface,19.527,19.502,19.536,19.598,20.002,21.640,22.225,22.375,21.449,20.121,19.802,19.633;

!-   ===========  ALL OBJECTS IN CLASS: SITE:WATERMAINSTEMPERATURE ===========


Site:WaterMainsTemperature,
    CORRELATION,             !- Calculation Method
    ,                        !- Temperature Schedule Name
    9.69,                    !- Annual Average Outdoor Air Temperature {C}
    28.10;                   !- Maximum Difference In Monthly Average Outdoor Air Temperatures {deltaC}


!-   ===========  ALL OBJECTS IN CLASS: SCHEDULETYPELIMITS ===========

! ***SCHEDULE TYPES***
ScheduleTypeLimits,
    Any Number;              !- Name

ScheduleTypeLimits,
    Fraction,                !- Name
    0.0,                     !- Lower Limit Value
    1.0,                     !- Upper Limit Value
    CONTINUOUS;              !- Numeric Type

ScheduleTypeLimits,
    Temperature,             !- Name
    -60,                     !- Lower Limit Value
    200,                     !- Upper Limit Value
    CONTINUOUS;              !- Numeric Type

ScheduleTypeLimits,
    On/Off,                  !- Name
    0,                       !- Lower Limit Value
    1,                       !- Upper Limit Value
    DISCRETE;                !- Numeric Type

ScheduleTypeLimits,
    Control Type,            !- Name
    0,                       !- Lower Limit Value
    4,                       !- Upper Limit Value
    DISCRETE;                !- Numeric Type

ScheduleTypeLimits,
    Humidity,                !- Name
    10,                      !- Lower Limit Value
    90,                      !- Upper Limit Value
    CONTINUOUS;              !- Numeric Type

ScheduleTypeLimits,
    Number;                  !- Name


!-   ===========  ALL OBJECTS IN CLASS: SCHEDULE:COMPACT ===========

! ***ALWAYS ON SCHEDULE***
Schedule:Compact,
    ALWAYS_ON,               !- Name
    On/Off,                  !- Schedule Type Limits Name
    Through: 12/31,          !- Field 1
    For: AllDays,            !- Field 2
    Until: 24:00, 1;         !- Field 4

! ***INTERNAL GAINS SCHEDULES***
Schedule:Compact,
    BLDG_ELEVATORS,          !- Name
    Fraction,                !- Schedule Type Limits Name
    Through: 12/31,          !- Field 1
    For: AllDays,            !- Field 2
    Until: 04:00, 0.05,      !- Field 4
    Until: 05:00, 0.10,      !- Field 6
    Until: 06:00, 0.20,      !- Field 8
    Until: 07:00, 0.40,      !- Field 10
    Until: 09:00, 0.50,      !- Field 12
    Until: 10:00, 0.35,      !- Field 14
    Until: 16:00, 0.15,      !- Field 16
    Until: 17:00, 0.35,      !- Field 18
    Until: 19:00, 0.50,      !- Field 20
    Until: 21:00, 0.40,      !- Field 22
    Until: 22:00, 0.30,      !- Field 24
    Until: 23:00, 0.20,      !- Field 26
    Until: 24:00, 0.10;      !- Field 28

Schedule:Compact,
    INFIL_QUARTER_ON_SCH,    !- Name
    Fraction,                !- Schedule Type Limits Name
    Through: 12/31,          !- Field 1
    For: Weekdays SummerDesignDay,  !- Field 2
    Until: 06:00, 1.0,       !- Field 4
    Until: 22:00, 0.25,      !- Field 6
    Until: 24:00, 1.0,       !- Field 8
    For: Saturday WinterDesignDay,  !- Field 9
    Until: 06:00, 1.0,       !- Field 11
    Until: 18:00, 0.25,      !- Field 13
    Until: 24:00, 1.0,       !- Field 15
    For: Sunday Holidays AllOtherDays,  !- Field 16
    Until: 24:00, 1.0;       !- Field 18

Schedule:Compact,
    BLDG_OCC_SCH,            !- Name
    Fraction,                !- Schedule Type Limits Name
    Through: 12/31,          !- Field 1
    For: SummerDesignDay,    !- Field 2
    Until: 06:00, 0.0,       !- Field 4
    Until: 22:00, 1.0,       !- Field 6
    Until: 24:00, 0.05,      !- Field 8
    For: Weekdays,           !- Field 9
    Until: 06:00, 0.0,       !- Field 11
    Until: 07:00, 0.1,       !- Field 13
    Until: 08:00, 0.2,       !- Field 15
    Until: 12:00, 0.95,      !- Field 17
    Until: 13:00, 0.5,       !- Field 19
    Until: 17:00, 0.95,      !- Field 21
    Until: 18:00, 0.7,       !- Field 23
    Until: 20:00, 0.4,       !- Field 25
    Until: 22:00, 0.1,       !- Field 27
    Until: 24:00, 0.05,      !- Field 29
    For: Saturday,           !- Field 30
    Until: 06:00, 0.0,       !- Field 32
    Until: 08:00, 0.1,       !- Field 34
    Until: 14:00, 0.5,       !- Field 36
    Until: 17:00, 0.1,       !- Field 38
    Until: 24:00, 0.0,       !- Field 40
    For: AllOtherDays,       !- Field 41
    Until: 24:00, 0.0;       !- Field 43

Schedule:Compact,
    BLDG_LIGHT_SCH,          !- Name
    Fraction,                !- Schedule Type Limits Name
    Through: 12/31,          !- Field 1
    For: Weekdays,           !- Field 2
    Until: 05:00, 0.05,      !- Field 4
    Until: 07:00, 0.1,       !- Field 6
    Until: 08:00, 0.3,       !- Field 8
    Until: 17:00, 0.9,       !- Field 10
    Until: 18:00, 0.7,       !- Field 12
    Until: 20:00, 0.5,       !- Field 14
    Until: 22:00, 0.3,       !- Field 16
    Until: 23:00, 0.1,       !- Field 18
    Until: 24:00, 0.05,      !- Field 20
    For: Saturday,           !- Field 21
    Until: 06:00, 0.05,      !- Field 23
    Until: 08:00, 0.1,       !- Field 25
    Until: 14:00, 0.5,       !- Field 27
    Until: 17:00, 0.15,      !- Field 29
    Until: 24:00, 0.05,      !- Field 31
    For: SummerDesignDay,    !- Field 32
    Until: 24:00, 1.0,       !- Field 34
    For: WinterDesignDay,    !- Field 35
    Until: 24:00, 0.0,       !- Field 37
    For: AllOtherDays,       !- Field 38
    Until: 24:00, 0.05;      !- Field 40

Schedule:Compact,
    BLDG_EQUIP_SCH,          !- Name
    Fraction,                !- Schedule Type Limits Name
    Through: 12/31,          !- Field 1
    For: Weekdays,           !- Field 2
    Until: 08:00, 0.40,      !- Field 4
    Until: 12:00, 0.90,      !- Field 6
    Until: 13:00, 0.80,      !- Field 8
    Until: 17:00, 0.90,      !- Field 10
    Until: 18:00, 0.80,      !- Field 12
    Until: 20:00, 0.60,      !- Field 14
    Until: 22:00, 0.50,      !- Field 16
    Until: 24:00, 0.40,      !- Field 18
    For: Saturday,           !- Field 19
    Until: 06:00, 0.30,      !- Field 21
    Until: 08:00, 0.4,       !- Field 23
    Until: 14:00, 0.5,       !- Field 25
    Until: 17:00, 0.35,      !- Field 27
    Until: 24:00, 0.30,      !- Field 29
    For: SummerDesignDay,    !- Field 30
    Until: 24:00, 1.0,       !- Field 32
    For: WinterDesignDay,    !- Field 33
    Until: 24:00, 0.0,       !- Field 35
    For: AllOtherDays,       !- Field 36
    Until: 24:00, 0.30;      !- Field 38

Schedule:Compact,
    ACTIVITY_SCH,            !- Name
    Any Number,              !- Schedule Type Limits Name
    Through: 12/31,          !- Field 1
    For: AllDays,            !- Field 2
    Until: 24:00, 120;       !- Field 4

Schedule:Compact,
    WORK_EFF_SCH,            !- Name
    Fraction,                !- Schedule Type Limits Name
    Through: 12/31,          !- Field 1
    For: AllDays,            !- Field 2
    Until: 24:00, 0.0;       !- Field 4

Schedule:Compact,
    AIR_VELO_SCH,            !- Name
    Any Number,              !- Schedule Type Limits Name
    Through: 12/31,          !- Field 1
    For: AllDays,            !- Field 2
    Until: 24:00, 0.2;       !- Field 4

Schedule:Compact,
    CLOTHING_SCH,            !- Name
    Any Number,              !- Schedule Type Limits Name
    Through: 04/30,          !- Field 1
    For: AllDays,            !- Field 2
    Until: 24:00, 1.0,       !- Field 4
    Through: 09/30,          !- Field 5
    For: AllDays,            !- Field 6
    Until: 24:00, 0.5,       !- Field 8
    Through: 12/31,          !- Field 9
    For: AllDays,            !- Field 10
    Until: 24:00, 1.0;       !- Field 12

! ***SCHEDULES***
Schedule:Compact,
    CLGSETP_SCH_24,             !- Name
    Temperature,             !- Schedule Type Limits Name
    Through: 12/31,          !- Field 1
    For: Weekdays SummerDesignDay,  !- Field 2
    Until: 24:00, 24.0,      !- Field 3
    For: Saturday,           !- Field 4
    Until: 24:00, 24.0,      !- Field 5
    For WinterDesignDay,     !- Field 6
    Until: 24:00, 24.0,      !- Field 7
    For: AllOtherDays,       !- Field 8
    Until: 24:00, 24.0;      !- Field 9

Schedule:Compact,
    HTGSETP_SCH_24,             !- Name
    Temperature,             !- Schedule Type Limits Name
    Through: 12/31,          !- Field 1
    For: Weekdays,           !- Field 2
    Until: 24:00, 24.0,      !- Field 3
    For SummerDesignDay,     !- Field 4
    Until: 24:00, 24.0,      !- Field 5
    For: Saturday,           !- Field 6
    Until: 24:00, 24.0,      !- Field 7
    For: WinterDesignDay,    !- Field 8
    Until: 24:00, 24.0,      !- Field 9
    For: AllOtherDays,       !- Field 10
    Until: 24:00, 24.0;      !- Field 11




Schedule:Compact,
    CLGSETP_SCH,             !- Name
    Temperature,             !- Schedule Type Limits Name
    Through: 12/31,          !- Field 1
    For: Weekdays SummerDesignDay,  !- Field 2
    Until: 06:00, 26.7,      !- Field 4
    Until: 22:00, 24.0,      !- Field 6
    Until: 24:00, 26.7,      !- Field 8
    For: Saturday,           !- Field 9
    Until: 06:00, 26.7,      !- Field 11
    Until: 18:00, 24.0,      !- Field 13
    Until: 24:00, 26.7,      !- Field 15
    For WinterDesignDay,     !- Field 16
    Until: 24:00, 26.7,      !- Field 18
    For: AllOtherDays,       !- Field 19
    Until: 24:00, 26.7;      !- Field 21

Schedule:Compact,
    HTGSETP_SCH,             !- Name
    Temperature,             !- Schedule Type Limits Name
    Through: 12/31,          !- Field 1
    For: Weekdays,           !- Field 2
    Until: 06:00, 15.6,      !- Field 4
    Until: 22:00, 21.0,      !- Field 6
    Until: 24:00, 15.6,      !- Field 8
    For SummerDesignDay,     !- Field 9
    Until: 24:00, 15.6,      !- Field 11
    For: Saturday,           !- Field 12
    Until: 06:00, 15.6,      !- Field 14
    Until: 18:00, 21.0,      !- Field 16
    Until: 24:00, 15.6,      !- Field 18
    For: WinterDesignDay,    !- Field 19
    Until: 24:00, 21.0,      !- Field 21
    For: AllOtherDays,       !- Field 22
    Until: 24:00, 15.6;      !- Field 24

Schedule:Compact,
    Seasonal-Reset-Supply-Air-Temp-Sch,  !- Name
    Temperature,             !- Schedule Type Limits Name
    Through: 12/31,          !- Field 1
    For: AllDays,            !- Field 2
    Until: 24:00, 12.8;      !- Field 4

Schedule:Compact,
    MinOA_MotorizedDamper_Sched,  !- Name
    Fraction,                !- Schedule Type Limits Name
    Through: 12/31,          !- Field 1
    For: Weekdays SummerDesignDay,  !- Field 2
    Until: 07:00, 0.0,       !- Field 4
    Until: 22:00, 1.0,       !- Field 6
    Until: 24:00, 0.0,       !- Field 8
    For: Saturday WinterDesignDay,  !- Field 9
    Until: 07:00, 0.0,       !- Field 11
    Until: 18:00, 1.0,       !- Field 13
    Until: 24:00, 0.0,       !- Field 15
    For: AllOtherDays,       !- Field 16
    Until: 24:00, 0.0;       !- Field 18

Schedule:Compact,
    Dual Zone Control Type Sched,  !- Name
    Control Type,            !- Schedule Type Limits Name
    Through: 12/31,          !- Field 1
    For: AllDays,            !- Field 2
    Until: 24:00, 4;         !- Field 4

Schedule:Compact,
    HVACOperationSchd,       !- Name
    On/Off,                  !- Schedule Type Limits Name
    Through: 12/31,          !- Field 1
    For: Weekdays SummerDesignDay,  !- Field 2
    Until: 06:00, 0.0,       !- Field 4
    Until: 22:00, 1.0,       !- Field 6
    Until: 24:00, 0.0,       !- Field 8
    For: Saturday WinterDesignDay,  !- Field 9
    Until: 06:00, 0.0,       !- Field 11
    Until: 18:00, 1.0,       !- Field 13
    Until: 24:00, 0.0,       !- Field 15
    For: AllOtherDays,       !- Field 16
    Until: 24:00, 0.0;       !- Field 18

! ***SCHEDULES***
Schedule:Compact,
    CW-Loop-Temp-Schedule,   !- Name
    Temperature,             !- Schedule Type Limits Name
    Through: 12/31,          !- Field 1
    For: AllDays,            !- Field 2
    Until: 24:00, 6.7;       !- Field 4

Schedule:Compact,
    HW-Loop-Temp-Schedule,   !- Name
    Temperature,             !- Schedule Type Limits Name
    Through: 12/31,          !- Field 1
    For: AllDays,            !- Field 2
    Until: 24:00, 82.2;      !- Field 4

! ***SWH SCHEDULES***
Schedule:Compact,
    BLDG_SWH_SCH,            !- Name
    Fraction,                !- Schedule Type Limits Name
    Through: 12/31,          !- Field 1
    For: Weekdays SummerDesignDay,  !- Field 2
    Until: 05:00, 0.05,      !- Field 4
    Until: 06:00, 0.08,      !- Field 6
    Until: 07:00, 0.07,      !- Field 8
    Until: 08:00, 0.19,      !- Field 10
    Until: 09:00, 0.35,      !- Field 12
    Until: 10:00, 0.38,      !- Field 14
    Until: 11:00, 0.39,      !- Field 16
    Until: 12:00, 0.47,      !- Field 18
    Until: 13:00, 0.57,      !- Field 20
    Until: 14:00, 0.54,      !- Field 22
    Until: 15:00, 0.34,      !- Field 24
    Until: 16:00, 0.33,      !- Field 26
    Until: 17:00, 0.44,      !- Field 28
    Until: 18:00, 0.26,      !- Field 30
    Until: 19:00, 0.21,      !- Field 32
    Until: 20:00, 0.15,      !- Field 34
    Until: 21:00, 0.17,      !- Field 36
    Until: 22:00, 0.08,      !- Field 38
    Until: 24:00, 0.05,      !- Field 40
    For: Saturday WinterDesignDay,  !- Field 41
    Until: 05:00, 0.05,      !- Field 43
    Until: 06:00, 0.08,      !- Field 45
    Until: 07:00, 0.07,      !- Field 47
    Until: 08:00, 0.11,      !- Field 49
    Until: 09:00, 0.15,      !- Field 51
    Until: 10:00, 0.21,      !- Field 53
    Until: 11:00, 0.19,      !- Field 55
    Until: 12:00, 0.23,      !- Field 57
    Until: 13:00, 0.20,      !- Field 59
    Until: 14:00, 0.19,      !- Field 61
    Until: 15:00, 0.15,      !- Field 63
    Until: 16:00, 0.13,      !- Field 65
    Until: 17:00, 0.14,      !- Field 67
    Until: 21:00, 0.07,      !- Field 69
    Until: 22:00, 0.09,      !- Field 71
    Until: 24:00, 0.05,      !- Field 73
    For: AllOtherDays,       !- Field 74
    Until: 05:00, 0.04,      !- Field 76
    Until: 06:00, 0.07,      !- Field 78
    Until: 11:00, 0.04,      !- Field 80
    Until: 13:00, 0.06,      !- Field 82
    Until: 14:00, 0.09,      !- Field 84
    Until: 15:00, 0.06,      !- Field 86
    Until: 21:00, 0.04,      !- Field 88
    Until: 22:00, 0.07,      !- Field 90
    Until: 24:00, 0.04;      !- Field 92

Schedule:Compact,
    Water Equipment Latent fract sched,  !- Name
    Fraction,                !- Schedule Type Limits Name
    Through: 12/31,          !- Field 1
    For: AllDays,            !- Field 2
    Until: 24:00, 0.05;      !- Field 4

Schedule:Compact,
    Water Equipment Sensible fract sched,  !- Name
    Fraction,                !- Schedule Type Limits Name
    Through: 12/31,          !- Field 1
    For: AllDays,            !- Field 2
    Until: 24:00, 0.2;       !- Field 4

Schedule:Compact,
    SWHSys1 Water Heater Ambient Temperature Schedule Name,  !- Name
    Temperature,             !- Schedule Type Limits Name
    Through: 12/31,          !- Field 1
    For: AllDays,            !- Field 2
    Until: 24:00, 22.0;      !- Field 4

Schedule:Compact,
    Water Equipment Temp Sched,  !- Name
    Temperature,             !- Schedule Type Limits Name
    Through: 12/31,          !- Field 1
    For: AllDays,            !- Field 2
    Until: 24:00, 43.3;      !- Field 4

Schedule:Compact,
    Water Equipment Hot Supply Temp Sched,  !- Name
    Temperature,             !- Schedule Type Limits Name
    Through: 12/31,          !- Field 1
    For: AllDays,            !- Field 2
    Until: 24:00, 43.3;      !- Field 4

Schedule:Compact,
    SWHSys1 Water Heater Setpoint Temperature Schedule Name,  !- Name
    Temperature,             !- Schedule Type Limits Name
    Through: 12/31,          !- Field 1
    For: AllDays,            !- Field 2
    Until: 24:00, 60.0;      !- Field 4

Schedule:Compact,
    SWHSys1-Loop-Temp-Schedule,  !- Name